[General]
sim-time-limit = 24h
debug-on-errors = true
print-undisposed = true

cmdenv-express-mode = true
cmdenv-autoflush = true

**.scalar-recording = false
**.vector-recording = false

*.traci.core.version = -1
*.traci.launcher.typename = "PosixLauncher"
*.traci.launcher.sumocfg = "../../extern/veins/examples/veins/erlangen.sumo.cfg"
*.traci.launcher.sumo = "sumo-gui"

# separate random number generator for vehicle penetration rate
num-rngs = 2
*.traci.mapper.rng-0 = 1

image-path = "../../../veins-f2md/f2md-networks/images"


*.annotations.draw = true

*.connectionManager.maxInterfDist = 1500m
*.connectionManager.sendDirect = true
*.connectionManager.coreDebug = false

*.withObstacles = true
*.obstacles.obstacles = xmldoc("config.xml", "//AnalogueModel[@type='SimpleObstacleShadowing']/obstacles")

*.node[*].nic.mac1609_4.txPower = 126mW
*.node[*].nic.phy80211p.decider = xmldoc("config.xml")
*.node[*].nic.phy80211p.analogueModels = xmldoc("config.xml")

*.node[*].applType = "artery.veins.ApplicationLayer"
*.node[*].appl.middleware.updateInterval = 0.1s
*.node[*].appl.middleware.datetime = "2013-06-01 12:35:00"
*.node[*].appl.middleware.services = xmldoc("services.xml")

[Config f2md-LuSTNanoScenario]

network = artery.veins.World
*.traci.launcher.sumocfg = "../../../veins-f2md/f2md-networks/LuSTNanoScenario/due.actuated.sumocfg"
*.playgroundSizeX = 1500m
*.playgroundSizeY = 1500m
*.playgroundSizeZ = 50m


[Config f2md-LuSTMiniScenario]

network = artery.veins.World
*.traci.launcher.sumocfg = "../../../veins-f2md/f2md-networks/LuSTMiniScenario/due.actuated.sumocfg"
*.playgroundSizeX = 2200m
*.playgroundSizeY = 2700m
*.playgroundSizeZ = 50m

[Config f2md-LuSTScenario]

network = artery.veins.World
*.traci.launcher.sumocfg = "../../../veins-f2md/f2md-networks/LuSTScenario/due.actuated.sumocfg"
*.playgroundSizeX = 15000m
*.playgroundSizeY = 15000m
*.playgroundSizeZ = 50m

[Config f2md-UlmScenario]

network = artery.veins.World
*.traci.launcher.sumocfg = "../../../veins-f2md/f2md-networks/UlmScenario/UlmScenario.sumo.cfg"
*.playgroundSizeX = 6899m
*.playgroundSizeY = 5889m
*.playgroundSizeZ = 50m